[General]
network = DNP3NetworkTopology
sim-time-limit = 350s

output-scalar-file = ${configname}.sca
output-vector-file = ${configname}.vec

**.scalar-recording = true
**.vector-recording = true
**.result-recording-modes = all

*.distAuto.processingDelay = 10ms
**.totalPackets = 500
**.ackTimeout = 2s
**.stopGenerationTime = 300s
*.meter[*].meterId = index


[Config VeryLightTraffic_50]
description = "Very light traffic with 50 smart meters"
*.numMeters = 50
*.distAuto.numMeters = 50
**.eventInterval = 20s
**.eventBytes = 442


[Config LightTraffic]
description = "Light traffic scenario"
*.numMeters = 50
*.distAuto.numMeters = 50
**.eventInterval = 10s
**.eventBytes = 442


[Config MediumTraffic_50]
description = "Medium traffic with 50 smart meters"
*.numMeters = 50
*.distAuto.numMeters = 50
**.eventInterval = 5s
**.eventBytes = 442


[Config HeavyTraffic]
description = "Heavy traffic scenario"
*.numMeters = 50
*.distAuto.numMeters = 50
**.eventInterval = 1s
**.eventBytes = 542


[Config VeryHeavyTraffic_50]
description = "Very heavy traffic with 50 smart meters"
*.numMeters = 50
*.distAuto.numMeters = 50
**.eventInterval = 0.5s
**.eventBytes = 542


[Config RandomTraffic_50]
description = "Randomized traffic with 50 smart meters"
*.numMeters = 50
*.distAuto.numMeters = 50
**.eventInterval = exponential(5s)
**.eventBytes = intuniform(442, 542)



[Config LightTraffic_25]
description = "Light traffic with 25 smart meters"
*.numMeters = 25
*.distAuto.numMeters = 25
**.eventInterval = 10s
**.eventBytes = 442


[Config LightTraffic_75]
description = "Light traffic with 75 smart meters"
*.numMeters = 75
*.distAuto.numMeters = 75
**.eventInterval = 10s
**.eventBytes = 442


[Config LightTraffic_100]
description = "Light traffic with 100 smart meters"
*.numMeters = 100
*.distAuto.numMeters = 100
**.eventInterval = 10s
**.eventBytes = 442


[Config MediumTraffic_25]
description = "Medium traffic with 25 smart meters"
*.numMeters = 25
*.distAuto.numMeters = 25
**.eventInterval = 5s
**.eventBytes = 442


[Config MediumTraffic_75]
description = "Medium traffic with 75 smart meters"
*.numMeters = 75
*.distAuto.numMeters = 75
**.eventInterval = 5s
**.eventBytes = 442


[Config MediumTraffic_100]
description = "Medium traffic with 100 smart meters"
*.numMeters = 100
*.distAuto.numMeters = 100
**.eventInterval = 5s
**.eventBytes = 442