[General]
network = DNP3NetworkTopology
sim-time-limit = 200s

*.numMeters = 5
*.distAuto.numMeters = 5
*.distAuto.processingDelay = 10ms

**.totalPackets = 10
**.ackTimeout = 2s
**.eventInterval = 10s
**.eventBytes = 442

*.meter[*].meterId = index